           3
  -462.659230327663     
  O       0.000000      0.000000      0.000000
  H       1.000000      0.000000      0.000000
  H       0.000000      1.000000      0.000000
           3
  -462.683207397119     
  O       0.002958     -0.001776      0.000000
  H       1.004282     -0.003092     -0.000000
  H      -0.000438      1.001030     -0.000846
           3
  -462.714342228513     
  O       0.003330     -0.002160      0.000000
  H       1.007836     -0.004813      0.000001
  H      -0.001734      1.003982     -0.000984
           3
  -462.775044591330     
  O       0.007170     -0.004660      0.000000
  H       1.017135     -0.010518      0.000003
  H      -0.003885      1.008822     -0.002122
           3
  -462.765376187200     
  O       0.003061     -0.002307      0.000000
  H       1.013530     -0.007279      0.000005
  H      -0.004268      1.009451     -0.000973
           3
  -462.775362745361     
  O      -0.000078     -0.000613      0.000000
  H       1.012822     -0.005800      0.000008
  H      -0.005499      1.011910     -0.000114
           3
  -462.796798973983     
  O      -0.003432      0.001139      0.000000
  H       1.013446     -0.004961      0.000012
  H      -0.007523      1.015795      0.000790
           3
  -462.830051285726     
  O      -0.006832      0.002836      0.000001
  H       1.015635     -0.004958      0.000014
  H      -0.010383      1.021392      0.001697
           3
  -462.870710774385     
  O      -0.010264      0.004493      0.000001
  H       1.019140     -0.005758      0.000015
  H      -0.014045      1.028420      0.002605
           3
  -462.915012575804     
  O      -0.013718      0.006117      0.000001
  H       1.023763     -0.007339      0.000014
  H      -0.018488      1.036762      0.003516
           3
  -462.959137271479     
  O      -0.017181      0.007718      0.000001
  H       1.029288     -0.009679      0.000009
  H      -0.023690      1.046229      0.004431
           3
  -462.999625328707     
  O      -0.020639      0.009307      0.000001
  H       1.035458     -0.012733      0.000001
  H      -0.029609      1.056598      0.005349
           3
  -463.033878263365     
  O      -0.024080      0.010896      0.000001
  H       1.042030     -0.016460     -0.000011
  H      -0.036206      1.067636      0.006269
           3
  -463.060193484256     
  O      -0.027490      0.012497      0.000001
  H       1.048755     -0.020812     -0.000027
  H      -0.043437      1.079102      0.007191
           3
  -463.077801053404     
  O      -0.030859      0.014123      0.000002
  H       1.055400     -0.025736     -0.000048
  H      -0.051253      1.090756      0.008113
           3
  -463.086786108361     
  O      -0.034174      0.015784      0.000003
  H       1.061741     -0.031176     -0.000074
  H      -0.059602      1.102364      0.009034
           3
  -463.087928110394     
  O      -0.037428      0.017491      0.000004
  H       1.067576     -0.037075     -0.000105
  H      -0.068430      1.113707      0.009952
           3
  -463.078118183925     
  O      -0.040612      0.019252      0.000006
  H       1.072722     -0.043371     -0.000141
  H      -0.077681      1.124581      0.010863
           3
  -463.078397156535     
  O      -0.040571      0.019284      0.000007
  H       1.072245     -0.043520     -0.000144
  H      -0.077847      1.124220      0.010859
           3
  -463.081101109685     
  O      -0.040456      0.019376      0.000008
  H       1.070970     -0.044024     -0.000151
  H      -0.078396      1.123266      0.010848
           3
  -463.084759532546     
  O      -0.040262      0.019532      0.000010
  H       1.068769     -0.044824     -0.000163
  H      -0.079273      1.121593      0.010828
           3
  -463.093477128922     
  O      -0.039998      0.019745      0.000013
  H       1.065824     -0.045975     -0.000179
  H      -0.080528      1.119372      0.010802
           3
  -463.098342284593     
  O      -0.039664      0.020014      0.000016
  H       1.062145     -0.047459     -0.000200
  H      -0.082141      1.116578      0.010768
           3
  -463.103085912039     
  O      -0.039266      0.020337      0.000020
  H       1.057794     -0.049275     -0.000226
  H      -0.084109      1.113275      0.010728
           3
  -463.107118833138     
  O      -0.038810      0.020709      0.000025
  H       1.052885     -0.051431     -0.000257
  H      -0.086438      1.109529      0.010683
           3
  -463.109873954304     
  O      -0.038302      0.021125      0.000030
  H       1.047493     -0.053921     -0.000292
  H      -0.089115      1.105409      0.010633
           3
  -463.110834601618     
  O      -0.037749      0.021581      0.000036
  H       1.041735     -0.056745     -0.000332
  H      -0.092140      1.100997      0.010578
           3
  -463.109564446946     
  O      -0.037158      0.022071      0.000043
  H       1.035731     -0.059905     -0.000376
  H      -0.095507      1.096383      0.010520
           3
  -463.105826085263     
  O      -0.036540      0.022588      0.000050
  H       1.029613     -0.063396     -0.000425
  H      -0.099207      1.091662      0.010460
           3
  -463.099611208510     
  O      -0.035902      0.023127      0.000057
  H       1.023516     -0.067221     -0.000479
  H      -0.103236      1.086933      0.010398
           3
  -463.091120646044     
  O      -0.035254      0.023681      0.000064
  H       1.017582     -0.071375     -0.000536
  H      -0.107584      1.082299      0.010336
           3
  -463.080788957759     
  O      -0.034605      0.024243      0.000072
  H       1.011951     -0.075859     -0.000598
  H      -0.112244      1.077861      0.010275
           3
  -463.069266473603     
  O      -0.033966      0.024807      0.000080
  H       1.006758     -0.080668     -0.000664
  H      -0.117205      1.073718      0.010215
           3
  -463.070244285068     
  O      -0.033976      0.024804      0.000080
  H       1.007061     -0.080828     -0.000666
  H      -0.117348      1.073927      0.010217
           3
  -463.072955788587     
  O      -0.034000      0.024798      0.000080
  H       1.007881     -0.081308     -0.000672
  H      -0.117783      1.074489      0.010220
           3
  -463.076286873187     
  O      -0.034044      0.024787      0.000081
  H       1.009293     -0.082099     -0.000682
  H      -0.118496      1.075463      0.010226
           3
  -463.081179501118     
  O      -0.034099      0.024775      0.000081
  H       1.011160     -0.083196     -0.000697
  H      -0.119490      1.076752      0.010235
           3
  -463.086852616832     
  O      -0.034166      0.024761      0.000081
  H       1.013478     -0.084584     -0.000715
  H      -0.120750      1.078360      0.010244
           3
  -463.092890188990     
  O      -0.034240      0.024748      0.000082
  H       1.016172     -0.086248     -0.000736
  H      -0.122266      1.080238      0.010256
           3
  -463.098906132433     
  O      -0.034318      0.024736      0.000083
  H       1.019170     -0.088169     -0.000762
  H      -0.124024      1.082341      0.010268
           3
  -463.104542746285     
  O      -0.034396      0.024729      0.000084
  H       1.022390     -0.090327     -0.000790
  H      -0.126006      1.084617      0.010281
           3
  -463.109503623559     
  O      -0.034470      0.024727      0.000085
  H       1.025747     -0.092699     -0.000822
  H      -0.128196      1.087010      0.010293
           3
  -463.113405666567     
  O      -0.034534      0.024734      0.000087
  H       1.029154     -0.095261     -0.000857
  H      -0.130574      1.089462      0.010305
           3
  -463.116229872997     
  O      -0.034586      0.024752      0.000088
  H       1.032510     -0.097976     -0.000894
  H      -0.133108      1.091901      0.010316
           3
  -463.118006011752     
  O      -0.034621      0.024781      0.000090
  H       1.035743     -0.100829     -0.000934
  H      -0.135789      1.094281      0.010325
           3
  -463.118774117253     
  O      -0.034635      0.024826      0.000092
  H       1.038757     -0.103780     -0.000975
  H      -0.138581      1.096529      0.010332
           3
  -463.118584608443     
  O      -0.034623      0.024834      0.000093
  H       1.038609     -0.103821     -0.000976
  H      -0.138630      1.096438      0.010331
           3
  -463.118181831686     
  O      -0.034587      0.024858      0.000093
  H       1.038201     -0.103949     -0.000979
  H      -0.138783      1.096188      0.010327
           3
  -463.118293610950     
  O      -0.034527      0.024898      0.000094
  H       1.037490     -0.104148     -0.000984
  H      -0.139023      1.095746      0.010320
           3
  -463.117881515847     
  O      -0.034446      0.024953      0.000095
  H       1.036544     -0.104436     -0.000990
  H      -0.139368      1.095159      0.010310
           3
  -463.117289830003     
  O      -0.034343      0.025023      0.000096
  H       1.035357     -0.104807     -0.000999
  H      -0.139808      1.094419      0.010298
           3
  -463.116485734805     
  O      -0.034222      0.025107      0.000098
  H       1.033961     -0.105264     -0.001009
  H      -0.140346      1.093546      0.010284
           3
  -463.115436422876     
  O      -0.034082      0.025204      0.000099
  H       1.032387     -0.105809     -0.001021
  H      -0.140982      1.092555      0.010267
           3
  -463.114116412985     
  O      -0.033928      0.025313      0.000101
  H       1.030669     -0.106445     -0.001035
  H      -0.141716      1.091467      0.010249
           3
  -463.112511504036     
  O      -0.033761      0.025432      0.000104
  H       1.028847     -0.107174     -0.001052
  H      -0.142546      1.090304      0.010229
           3
  -463.110622840979     
  O      -0.033584      0.025560      0.000106
  H       1.026962     -0.107998     -0.001070
  H      -0.143474      1.089088      0.010207
           3
  -463.108469535999     
  O      -0.033399      0.025697      0.000109
  H       1.025056     -0.108920     -0.001090
  H      -0.144497      1.087844      0.010183
           3
  -463.106089893163     
  O      -0.033210      0.025840      0.000112
  H       1.023174     -0.109942     -0.001112
  H      -0.145615      1.086597      0.010159
           3
  -463.103540842777     
  O      -0.033019      0.025988      0.000115
  H       1.021357     -0.111065     -0.001136
  H      -0.146826      1.085372      0.010134
           3
  -463.100895505959     
  O      -0.032829      0.026139      0.000118
  H       1.019648     -0.112291     -0.001162
  H      -0.148129      1.084193      0.010108
           3
  -463.098238956242     
  O      -0.032643      0.026293      0.000122
  H       1.018086     -0.113620     -0.001190
  H      -0.149520      1.083085      0.010082
           3
  -463.098130635645     
  O      -0.032647      0.026293      0.000122
  H       1.018182     -0.113671     -0.001191
  H      -0.149563      1.083135      0.010082
           3
  -463.098894046916     
  O      -0.032655      0.026294      0.000122
  H       1.018448     -0.113823     -0.001194
  H      -0.149691      1.083270      0.010081
           3
  -463.099567294339     
  O      -0.032671      0.026295      0.000122
  H       1.018901     -0.114075     -0.001199
  H      -0.149903      1.083502      0.010081
           3
  -463.100391526666     
  O      -0.032690      0.026298      0.000123
  H       1.019504     -0.114424     -0.001205
  H      -0.150198      1.083811      0.010080
           3
  -463.101355451441     
  O      -0.032714      0.026301      0.000123
  H       1.020254     -0.114866     -0.001214
  H      -0.150572      1.084198      0.010079
           3
  -463.101768830094     
  O      -0.032740      0.026306      0.000124
  H       1.021128     -0.115395     -0.001225
  H      -0.151023      1.084652      0.010078
           3
  -463.102758018652     
  O      -0.032769      0.026312      0.000125
  H       1.022102     -0.116007     -0.001237
  H      -0.151546      1.085163      0.010076
           3
  -463.103741919256     
  O      -0.032798      0.026320      0.000126
  H       1.023152     -0.116693     -0.001251
  H      -0.152138      1.085720      0.010073
           3
  -463.104678057434     
  O      -0.032826      0.026331      0.000127
  H       1.024250     -0.117447     -0.001267
  H      -0.152793      1.086309      0.010070
           3
  -463.105528631135     
  O      -0.032851      0.026344      0.000129
  H       1.025367     -0.118260     -0.001284
  H      -0.153506      1.086918      0.010066
           3
  -463.106263869633     
  O      -0.032872      0.026359      0.000130
  H       1.026473     -0.119126     -0.001303
  H      -0.154272      1.087532      0.010060
           3
  -463.106862304825     
  O      -0.032889      0.026378      0.000132
  H       1.027542     -0.120034     -0.001323
  H      -0.155084      1.088138      0.010054
           3
  -463.107838662789     
  O      -0.032898      0.026401      0.000134
  H       1.028543     -0.120977     -0.001345
  H      -0.155936      1.088721      0.010047
           3
  -463.108203700230     
  O      -0.032900      0.026428      0.000136
  H       1.029453     -0.121947     -0.001367
  H      -0.156822      1.089267      0.010038
           3
  -463.108214984085     
  O      -0.032895      0.026430      0.000136
  H       1.029392     -0.121955     -0.001368
  H      -0.156835      1.089241      0.010037
           3
  -463.107442296770     
  O      -0.032881      0.026436      0.000136
  H       1.029223     -0.121984     -0.001369
  H      -0.156878      1.089169      0.010035
           3
  -463.107005270203     
  O      -0.032859      0.026447      0.000136
  H       1.028933     -0.122028     -0.001372
  H      -0.156946      1.089043      0.010032
           3
  -463.106584433118     
  O      -0.032829      0.026462      0.000137
  H       1.028547     -0.122094     -0.001376
  H      -0.157043      1.088876      0.010026
           3
  -463.106110368132     
  O      -0.032790      0.026480      0.000138
  H       1.028065     -0.122179     -0.001381
  H      -0.157168      1.088666      0.010020
           3
  -463.105562640852     
  O      -0.032745      0.026503      0.000139
  H       1.027499     -0.122287     -0.001388
  H      -0.157322      1.088417      0.010012
           3
  -463.104941659874     
  O      -0.032694      0.026529      0.000140
  H       1.026864     -0.122419     -0.001395
  H      -0.157503      1.088134      0.010003
           3
  -463.104885425872     
  O      -0.032637      0.026558      0.000141
  H       1.026175     -0.122575     -0.001404
  H      -0.157713      1.087823      0.009993
           3
  -463.103606262812     
  O      -0.032576      0.026591      0.000142
  H       1.025446     -0.122759     -0.001414
  H      -0.157951      1.087487      0.009981
           3
  -463.103413533035     
  O      -0.032512      0.026627      0.000144
  H       1.024697     -0.122971     -0.001425
  H      -0.158217      1.087135      0.009969
           3
  -463.102594941869     
  O      -0.032446      0.026665      0.000145
  H       1.023943     -0.123213     -0.001437
  H      -0.158511      1.086772      0.009955
           3
  -463.101741077512     
  O      -0.032379      0.026705      0.000147
  H       1.023204     -0.123487     -0.001451
  H      -0.158833      1.086405      0.009940
           3
  -463.100869060287     
  O      -0.032312      0.026748      0.000149
  H       1.022495     -0.123795     -0.001465
  H      -0.159183      1.086040      0.009924
           3
  -463.099998961217     
  O      -0.032247      0.026792      0.000151
  H       1.021835     -0.124137     -0.001481
  H      -0.159560      1.085684      0.009908
           3
  -463.099957216236     
  O      -0.032248      0.026792      0.000151
  H       1.021869     -0.124155     -0.001482
  H      -0.159573      1.085693      0.009907
           3
  -463.099858727425     
  O      -0.032252      0.026794      0.000151
  H       1.021960     -0.124207     -0.001484
  H      -0.159613      1.085716      0.009906
           3
  -463.100328079941     
  O      -0.032257      0.026797      0.000152
  H       1.022118     -0.124295     -0.001487
  H      -0.159679      1.085757      0.009904
           3
  -463.100467874606     
  O      -0.032265      0.026801      0.000152
  H       1.022327     -0.124416     -0.001492
  H      -0.159770      1.085810      0.009901
           3
  -463.100663220331     
  O      -0.032274      0.026807      0.000153
  H       1.022588     -0.124569     -0.001497
  H      -0.159886      1.085878      0.009897
           3
  -463.100882642259     
  O      -0.032284      0.026813      0.000153
  H       1.022891     -0.124752     -0.001504
  H      -0.160026      1.085958      0.009893
           3
  -463.101110919230     
  O      -0.032295      0.026821      0.000154
  H       1.023228     -0.124964     -0.001513
  H      -0.160189      1.086048      0.009887
           3
  -463.101338158019     
  O      -0.032306      0.026829      0.000155
  H       1.023592     -0.125201     -0.001522
  H      -0.160374      1.086148      0.009881
           3
  -463.101555657160     
  O      -0.032317      0.026839      0.000156
  H       1.023971     -0.125462     -0.001532
  H      -0.160580      1.086256      0.009874
           3
  -463.101755036659     
  O      -0.032327      0.026850      0.000158
  H       1.024356     -0.125744     -0.001544
  H      -0.160805      1.086368      0.009866
           3
  -463.101928783185     
  O      -0.032336      0.026861      0.000159
  H       1.024737     -0.126044     -0.001557
  H      -0.161047      1.086483      0.009857
