           5
  -215.332503153263     
  C       0.013246      0.002725     -0.030046
  H       0.568220      0.690855      0.553475
  H      -0.714717     -0.640610      0.926308
  H       0.610068     -0.696267     -0.519034
  H      -0.621407      0.613555     -0.602728
           5
  -215.908561436388     
  C       0.001208     -0.007350     -0.010447
  H       0.613349      0.726246      0.524044
  H      -0.662233     -0.594052      0.843331
  H       0.648979     -0.689668     -0.576125
  H      -0.614494      0.645054     -0.666764
           5
  -216.028457571149     
  C      -0.009862     -0.014879      0.004403
  H       0.656330      0.750972      0.506478
  H      -0.607834     -0.549145      0.762079
  H       0.672191     -0.678579     -0.612087
  H      -0.603176      0.654049     -0.708932
           5
  -216.072104748177     
  C      -0.005490     -0.010769     -0.000035
  H       0.644435      0.737621      0.516792
  H      -0.622780     -0.562682      0.776146
  H       0.656677     -0.685108     -0.597670
  H      -0.612918      0.638486     -0.694854
           5
  -216.105050656966     
  C      -0.003125     -0.007717     -0.000981
  H       0.642634      0.727571      0.524966
  H      -0.624588     -0.565154      0.766287
  H       0.642291     -0.689924     -0.589814
  H      -0.623101      0.619466     -0.689750
           5
  -216.142932712713     
  C       0.000223     -0.002802     -0.001072
  H       0.646235      0.712638      0.540628
  H      -0.622752     -0.564621      0.737811
  H       0.617648     -0.698675     -0.579541
  H      -0.643793      0.584044     -0.686127
           5
  -216.145060253733     
  C       0.000560     -0.002541     -0.000491
  H       0.648831      0.713747      0.542872
  H      -0.622524     -0.563400      0.732028
  H       0.615500     -0.700226     -0.580524
  H      -0.648480      0.580155     -0.688520
           5
  -216.143966753899     
  C       0.000956     -0.001969     -0.000064
  H       0.652485      0.715482      0.546372
  H      -0.623860     -0.563799      0.727881
  H       0.614434     -0.703577     -0.582172
  H      -0.654453      0.575352     -0.691322
           5
  -216.141984457771     
  C       0.000921     -0.001951     -0.000121
  H       0.653780      0.716949      0.547361
  H      -0.625101     -0.564807      0.729386
  H       0.615730     -0.704732     -0.583135
  H      -0.655383      0.575837     -0.692165
           5
  -216.140873447008     
  C       0.001036     -0.001858     -0.000224
  H       0.653989      0.717327      0.547860
  H      -0.626321     -0.565740      0.730692
  H       0.616113     -0.705406     -0.583446
  H      -0.656119      0.575960     -0.692437
