           5
  -212.447872106667     
  C      -0.000000     -0.000000     -0.000000
  H       0.623316      0.623316      0.623316
  H      -0.623316     -0.623316      0.623316
  H       0.623316     -0.623316     -0.623316
  H      -0.623316      0.623316     -0.623316
           5
  -212.453310762425     
  C      -0.011197     -0.000000     -0.010880
  H       0.624139      0.624139      0.617098
  H      -0.624139     -0.624139      0.613259
  H       0.624139     -0.639750     -0.624139
  H      -0.624139      0.624139     -0.624139
           5
  -212.506249295609     
  C      -0.012927     -0.000015     -0.012618
  H       0.626388      0.626371      0.618210
  H      -0.626739     -0.626706      0.614114
  H       0.626356     -0.644472     -0.626385
  H      -0.626858      0.626865     -0.626903
           5
  -212.543396891331     
  C      -0.027848     -0.000034     -0.027188
  H       0.630131      0.630095      0.612510
  H      -0.630926     -0.630847      0.603718
  H       0.630058     -0.669095     -0.630130
  H      -0.631191      0.631206     -0.631294
           5
  -212.608555407758     
  C      -0.012407     -0.000077     -0.012324
  H       0.630365      0.630300      0.622339
  H      -0.632047     -0.631884      0.619683
  H       0.630207     -0.647948     -0.630382
  H      -0.632631      0.632675     -0.632846
           5
  -212.660803645956     
  C      -0.000860     -0.000107     -0.001211
  H       0.632154      0.632062      0.631301
  H      -0.634515     -0.634275      0.633242
  H       0.631932     -0.633754     -0.632183
  H      -0.635316      0.635371     -0.635624
           5
  -212.708581079800     
  C       0.011409     -0.000161      0.010540
  H       0.635005      0.634883      0.641731
  H      -0.638462     -0.638098      0.648906
  H       0.634675     -0.619678     -0.635076
  H      -0.639641      0.639729     -0.640097
           5
  -212.747645945501     
  C       0.023553     -0.000187      0.022266
  H       0.639477      0.639343      0.653784
  H      -0.643415     -0.642980      0.665572
  H       0.639088     -0.607289     -0.639583
  H      -0.644752      0.644864     -0.645292
           5
  -212.773509118420     
  C       0.035600     -0.000199      0.033976
  H       0.645333      0.645214      0.667229
  H      -0.649252     -0.648804      0.683135
  H       0.644919     -0.596321     -0.645485
  H      -0.650626      0.650791     -0.651193
           5
  -212.784270346358     
  C       0.047483     -0.000188      0.045658
  H       0.652625      0.652560      0.682121
  H      -0.655672     -0.655327      0.701317
  H       0.652235     -0.586848     -0.652817
  H      -0.656888      0.657152     -0.657387
           5
  -212.777675674116     
  C       0.059175     -0.000152      0.057305
  H       0.661271      0.661307      0.698376
  H      -0.662434     -0.662355      0.719899
  H       0.660959     -0.578794     -0.661478
  H      -0.663294      0.663738     -0.663602
           5
  -212.751799253424     
  C       0.070652     -0.000089      0.068910
  H       0.671173      0.671355      0.715892
  H      -0.669287     -0.669691      0.738663
  H       0.670992     -0.572060     -0.671329
  H      -0.669607      0.670343     -0.669577
           5
  -212.705010883224     
  C       0.081899     -0.000001      0.080468
  H       0.682200      0.682568      0.734530
  H      -0.676004     -0.677162      0.757416
  H       0.682198     -0.566519     -0.682190
  H      -0.675621      0.676800     -0.675085
           5
  -212.635561785229     
  C       0.092910      0.000113      0.091971
  H       0.694195      0.694774      0.754117
  H      -0.682371     -0.684609      0.775983
  H       0.694420     -0.562016     -0.693838
  H      -0.681155      0.682969     -0.679925
           5
  -212.544272528706     
  C       0.103684      0.000254      0.103415
  H       0.706996      0.707785      0.774472
  H      -0.688195     -0.691891      0.794203
  H       0.707486     -0.558390     -0.706026
  H      -0.686062      0.688730     -0.683929
           5
  -212.548779753353     
  C       0.103569      0.000267      0.103382
  H       0.707279      0.708051      0.774723
  H      -0.687812     -0.691725      0.793948
  H       0.707800     -0.558721     -0.706133
  H      -0.685666      0.688471     -0.683419
           5
  -212.561613754914     
  C       0.103220      0.000307      0.103284
  H       0.708243      0.708978      0.775602
  H      -0.686766     -0.691309      0.793253
  H       0.708831     -0.559809     -0.706599
  H      -0.684553      0.687737     -0.681974
           5
  -212.582544554360     
  C       0.102649      0.000376      0.103118
  H       0.709729      0.710375      0.776932
  H      -0.684945     -0.690561      0.792037
  H       0.710431     -0.561511     -0.707201
  H      -0.682649      0.686481     -0.679511
           5
  -212.609866095831     
  C       0.101857      0.000472      0.102890
  H       0.711844      0.712369      0.778830
  H      -0.682494     -0.689588      0.790413
  H       0.712710     -0.563928     -0.708111
  H      -0.680062      0.684781     -0.676151
           5
  -212.642149924090     
  C       0.100860      0.000599      0.102596
  H       0.714474      0.714823      0.781170
  H      -0.679380     -0.688371      0.788361
  H       0.715561     -0.566959     -0.709179
  H      -0.676775      0.682631     -0.671878
           5
  -212.677595184574     
  C       0.099671      0.000757      0.102241
  H       0.717584      0.717695      0.783909
  H      -0.675657     -0.686952      0.785922
  H       0.718955     -0.570573     -0.710374
  H      -0.672839      0.680067     -0.666742
           5
  -212.714185025727     
  C       0.098308      0.000948      0.101824
  H       0.721110      0.720907      0.786979
  H      -0.671364     -0.685362      0.783133
  H       0.722837     -0.574716     -0.711631
  H      -0.668298      0.677131     -0.660798
           5
  -212.749822834334     
  C       0.096791      0.001174      0.101347
  H       0.724988      0.724383      0.790305
  H      -0.666557     -0.683650      0.780041
  H       0.727146     -0.579330     -0.712877
  H      -0.663214      0.673870     -0.654107
           5
  -212.782692839024     
  C       0.095141      0.001434      0.100814
  H       0.729145      0.728035      0.793810
  H      -0.661290     -0.681861      0.776699
  H       0.731822     -0.584352     -0.714045
  H      -0.657654      0.670347     -0.646751
           5
  -212.811202427511     
  C       0.093383      0.001731      0.100227
  H       0.733507      0.731779      0.797415
  H      -0.655629     -0.680048      0.773163
  H       0.736794     -0.589715     -0.715055
  H      -0.651697      0.666624     -0.638812
           5
  -212.833561815724     
  C       0.091541      0.002062      0.099590
  H       0.738001      0.735527      0.801039
  H      -0.649644     -0.678273      0.769500
  H       0.741997     -0.595351     -0.715841
  H      -0.645435      0.662786     -0.630394
           5
  -212.848629138195     
  C       0.089643      0.002428      0.098907
  H       0.742555      0.739196      0.804609
  H      -0.643410     -0.676597      0.765776
  H       0.747361     -0.601192     -0.716332
  H      -0.638973      0.658916     -0.621611
           5
  -212.855942818481     
  C       0.087717      0.002828      0.098182
  H       0.747096      0.742699      0.808040
  H      -0.637005     -0.675085      0.762065
  H       0.752817     -0.607160     -0.716454
  H      -0.632418      0.655112     -0.612579
           5
  -212.855245089488     
  C       0.085790      0.003257      0.097423
  H       0.751559      0.745966      0.811274
  H      -0.630511     -0.673806      0.758440
  H       0.758299     -0.613196     -0.716155
  H      -0.625898      0.651482     -0.603439
           5
  -212.847001940745     
  C       0.083891      0.003714      0.096634
  H       0.755878      0.748920      0.814234
  H      -0.624013     -0.672830      0.754983
  H       0.763745     -0.619226     -0.715375
  H      -0.619537      0.648138     -0.594325
           5
  -212.847931900037     
  C       0.083924      0.003725      0.096625
  H       0.755769      0.748727      0.814066
  H      -0.624057     -0.673024      0.755109
  H       0.763683     -0.619187     -0.715106
  H      -0.619708      0.648362     -0.594436
           5
  -212.850519161327     
  C       0.084003      0.003759      0.096590
  H       0.755477      0.748185      0.813593
  H      -0.624152     -0.673565      0.755452
  H       0.763547     -0.619104     -0.714330
  H      -0.620126      0.648949     -0.594669
           5
  -212.854896768289     
  C       0.084148      0.003814      0.096536
  H       0.754967      0.747254      0.812779
  H      -0.624348     -0.674496      0.756059
  H       0.763290     -0.618934     -0.713020
  H      -0.620893      0.649988     -0.595134
           5
  -212.860428620841     
  C       0.084334      0.003893      0.096458
  H       0.754291      0.745994      0.811681
  H      -0.624575     -0.675753      0.756862
  H       0.762969     -0.618732     -0.711225
  H      -0.621886      0.651368     -0.595702
           5
  -212.867132280220     
  C       0.084567      0.003992      0.096358
  H       0.753442      0.744398      0.810292
  H      -0.624849     -0.677342      0.757873
  H       0.762571     -0.618483     -0.708944
  H      -0.623142      0.653117     -0.596412
           5
  -212.874344986379     
  C       0.084838      0.004113      0.096236
  H       0.752443      0.742494      0.808639
  H      -0.625146     -0.679235      0.759066
  H       0.762116     -0.618206     -0.706206
  H      -0.624623      0.655198     -0.597230
           5
  -212.881959208756     
  C       0.085141      0.004254      0.096091
  H       0.751315      0.740307      0.806746
  H      -0.625444     -0.681404      0.760416
  H       0.761620     -0.617916     -0.703037
  H      -0.626303      0.657583     -0.598131
           5
  -212.889353725317     
  C       0.085466      0.004415      0.095924
  H       0.750082      0.737869      0.804645
  H      -0.625721     -0.683821      0.761897
  H       0.761101     -0.617630     -0.699472
  H      -0.628151      0.660237     -0.599085
           5
  -212.896222222291     
  C       0.085805      0.004594      0.095734
  H       0.748774      0.735213      0.802367
  H      -0.625951     -0.686451      0.763481
  H       0.760583     -0.617368     -0.695545
  H      -0.630133      0.663126     -0.600063
           5
  -212.902096242680     
  C       0.086148      0.004791      0.095523
  H       0.747420      0.732378      0.799950
  H      -0.626109     -0.689260      0.765137
  H       0.760088     -0.617152     -0.691298
  H      -0.632214      0.666210     -0.601032
           5
  -212.906809701552     
  C       0.086484      0.005003      0.095290
  H       0.746055      0.729412      0.797442
  H      -0.626171     -0.692209      0.766837
  H       0.759647     -0.617013     -0.686786
  H      -0.634357      0.669450     -0.601960
           5
  -212.910262005293     
  C       0.086805      0.005231      0.095036
  H       0.744713      0.726353      0.794877
  H      -0.626109     -0.695264      0.768547
  H       0.759282     -0.616968     -0.682044
  H      -0.636526      0.672805     -0.602815
           5
  -212.912373983449     
  C       0.087097      0.005473      0.094760
  H       0.743431      0.723253      0.792309
  H      -0.625902     -0.698385      0.770241
  H       0.759027     -0.617053     -0.677135
  H      -0.638684      0.676235     -0.603566
           5
  -212.913206899878     
  C       0.087353      0.005726      0.094464
  H       0.742245      0.720153      0.789774
  H      -0.625523     -0.701537      0.771885
  H       0.758904     -0.617284     -0.672095
  H      -0.640795      0.679699     -0.604183
           5
  -212.912895674121     
  C       0.087561      0.005990      0.094147
  H       0.741190      0.717099      0.787321
  H      -0.624952     -0.704683      0.773452
  H       0.758941     -0.617689     -0.666976
  H      -0.642826      0.683160     -0.604639
           5
  -212.913114857103     
  C       0.087531      0.005994      0.094137
  H       0.741279      0.717151      0.787390
  H      -0.624844     -0.704658      0.773396
  H       0.759037     -0.617791     -0.666967
  H      -0.642765      0.683134     -0.604542
           5
  -212.913725721155     
  C       0.087448      0.006008      0.094107
  H       0.741522      0.717280      0.787567
  H      -0.624530     -0.704606      0.773246
  H       0.759309     -0.618081     -0.666910
  H      -0.642602      0.683079     -0.604267
           5
  -212.914723667577     
  C       0.087305      0.006030      0.094057
  H       0.741944      0.717514      0.787882
  H      -0.624002     -0.704503      0.772984
  H       0.759772     -0.618573     -0.666838
  H      -0.642317      0.682971     -0.603800
           5
  -212.916097131888     
  C       0.087112      0.006062      0.093987
  H       0.742510      0.717813      0.788296
  H      -0.623278     -0.704379      0.772637
  H       0.760402     -0.619245     -0.666710
  H      -0.641939      0.682841     -0.603166
           5
  -212.917635541137     
  C       0.086868      0.006102      0.093899
  H       0.743225      0.718186      0.788817
  H      -0.622359     -0.704228      0.772200
  H       0.761200     -0.620096     -0.666539
  H      -0.641463      0.682683     -0.602362
           5
  -212.919347401225     
  C       0.086577      0.006152      0.093791
  H       0.744075      0.718618      0.789428
  H      -0.621257     -0.704061      0.771685
  H       0.762154     -0.621114     -0.666312
  H      -0.640901      0.682507     -0.601403
           5
  -212.921110004361     
  C       0.086243      0.006212      0.093665
  H       0.745049      0.719096      0.790119
  H      -0.619985     -0.703887      0.771102
  H       0.763254     -0.622290     -0.666020
  H      -0.640265      0.682323     -0.600300
           5
  -212.922874655143     
  C       0.085870      0.006281      0.093521
  H       0.746131      0.719605      0.790874
  H      -0.618554     -0.703717      0.770462
  H       0.764486     -0.623608     -0.665654
  H      -0.639567      0.682141     -0.599069
           5
  -212.924511868169     
  C       0.085464      0.006359      0.093360
  H       0.747306      0.720130      0.791678
  H      -0.616982     -0.703562      0.769780
  H       0.765834     -0.625054     -0.665203
  H      -0.638821      0.681974     -0.597725
           5
  -212.925976367052     
  C       0.085029      0.006447      0.093183
  H       0.748557      0.720654      0.792514
  H      -0.615284     -0.703436      0.769069
  H       0.767285     -0.626613     -0.664655
  H      -0.638044      0.681835     -0.596287
           5
  -212.927203905293     
  C       0.084572      0.006544      0.092990
  H       0.749865      0.721160      0.793365
  H      -0.613478     -0.703350      0.768345
  H       0.768821     -0.628267     -0.664000
  H      -0.637250      0.681737     -0.594773
           5
  -212.928161139270     
  C       0.084099      0.006651      0.092783
  H       0.751214      0.721630      0.794212
  H      -0.611583     -0.703320      0.767622
  H       0.770425     -0.630000     -0.663226
  H      -0.636457      0.681695     -0.593203
           5
  -212.928832445497     
  C       0.083615      0.006768      0.092562
  H       0.752585      0.722048      0.795040
  H      -0.609616     -0.703358      0.766917
  H       0.772080     -0.631793     -0.662322
  H      -0.635683      0.681724     -0.591598
           5
  -212.929225586384     
  C       0.083126      0.006893      0.092329
  H       0.753960      0.722396      0.795830
  H      -0.607597     -0.703479      0.766246
  H       0.773768     -0.633629     -0.661279
  H      -0.634944      0.681836     -0.589978
           5
  -212.929367963599     
  C       0.082639      0.007028      0.092084
  H       0.755322      0.722660      0.796567
  H      -0.605545     -0.703695      0.765624
  H       0.775474     -0.635490     -0.660087
  H      -0.634257      0.682047     -0.588362
           5
  -212.929304602221     
  C       0.082159      0.007171      0.091828
  H       0.756655      0.722824      0.797235
  H      -0.603478     -0.704018      0.765065
  H       0.777179     -0.637360     -0.658739
  H      -0.633640      0.682368     -0.586772
           5
  -212.929094047055     
  C       0.081691      0.007323      0.091562
  H       0.757942      0.722874      0.797821
  H      -0.601413     -0.704459      0.764584
  H       0.778869     -0.639221     -0.657228
  H      -0.633106      0.682813     -0.585225
           5
  -212.928802295904     
  C       0.081240      0.007482      0.091289
  H       0.759169      0.722801      0.798311
  H      -0.599366     -0.705027      0.764193
  H       0.780528     -0.641059     -0.655550
  H      -0.632671      0.683390     -0.583739
           5
  -212.928907783590     
  C       0.081252      0.007486      0.091285
  H       0.759131      0.722732      0.798256
  H      -0.599385     -0.705095      0.764245
  H       0.780504     -0.641037     -0.655464
  H      -0.632728      0.683462     -0.583780
           5
  -212.929207722335     
  C       0.081284      0.007497      0.091274
  H       0.759025      0.722533      0.798100
  H      -0.599432     -0.705295      0.764393
  H       0.780440     -0.640982     -0.655210
  H      -0.632890      0.683672     -0.583893
           5
  -212.929693406735     
  C       0.081339      0.007516      0.091256
  H       0.758844      0.722199      0.797837
  H      -0.599517     -0.705629      0.764643
  H       0.780328     -0.640885     -0.654790
  H      -0.633163      0.684022     -0.584085
           5
  -212.930322161543     
  C       0.081411      0.007541      0.091230
  H       0.758602      0.721742      0.797480
  H      -0.599623     -0.706086      0.764983
  H       0.780181     -0.640760     -0.654208
  H      -0.633535      0.684502     -0.584342
           5
  -212.931057970560     
  C       0.081502      0.007574      0.091197
  H       0.758300      0.721166      0.797031
  H      -0.599753     -0.706662      0.765409
  H       0.780000     -0.640605     -0.653471
  H      -0.634001      0.685107     -0.584662
           5
  -212.931930582337     
  C       0.081608      0.007614      0.091157
  H       0.757944      0.720479      0.796499
  H      -0.599897     -0.707349      0.765913
  H       0.779791     -0.640427     -0.652588
  H      -0.634552      0.685828     -0.585036
           5
  -212.932726045663     
  C       0.081726      0.007661      0.091109
  H       0.757544      0.719691      0.795893
  H      -0.600048     -0.708135      0.766487
  H       0.779560     -0.640233     -0.651568
  H      -0.635180      0.686653     -0.585456
           5
  -212.933479658956     
  C       0.081854      0.007714      0.091054
  H       0.757109      0.718814      0.795224
  H      -0.600198     -0.709009      0.767120
  H       0.779316     -0.640030     -0.650422
  H      -0.635871      0.687570     -0.585909
           5
  -212.934200705166     
  C       0.081987      0.007773      0.090991
  H       0.756649      0.717859      0.794503
  H      -0.600338     -0.709958      0.767801
  H       0.779066     -0.639826     -0.649163
  H      -0.636613      0.688567     -0.586386
           5
  -212.934737902253     
  C       0.082123      0.007838      0.090922
  H       0.756175      0.716841      0.793745
  H      -0.600458     -0.710969      0.768518
  H       0.778820     -0.639630     -0.647804
  H      -0.637394      0.689629     -0.586873
           5
  -212.935122744770     
  C       0.082258      0.007908      0.090845
  H       0.755700      0.715774      0.792963
  H      -0.600548     -0.712028      0.769258
  H       0.778588     -0.639451     -0.646361
  H      -0.638200      0.690740     -0.587359
           5
  -212.935372369852     
  C       0.082387      0.007983      0.090761
  H       0.755235      0.714673      0.792170
  H      -0.600597     -0.713120      0.770009
  H       0.778379     -0.639298     -0.644847
  H      -0.639016      0.691887     -0.587830
           5
  -212.935416731399     
  C       0.082507      0.008062      0.090670
  H       0.754793      0.713554      0.791382
  H      -0.600596     -0.714230      0.770758
  H       0.778204     -0.639182     -0.643279
  H      -0.639827      0.693053     -0.588274
           5
  -212.935301728447     
  C       0.082613      0.008146      0.090572
  H       0.754386      0.712431      0.790614
  H      -0.600536     -0.715345      0.771492
  H       0.778073     -0.639111     -0.641672
  H      -0.640621      0.694223     -0.588679
           5
  -212.935049908625     
  C       0.082703      0.008233      0.090467
  H       0.754026      0.711320      0.789878
  H      -0.600407     -0.716449      0.772201
  H       0.777994     -0.639094     -0.640042
  H      -0.641384      0.695382     -0.589033
           5
  -212.935084291333     
  C       0.082693      0.008234      0.090464
  H       0.754057      0.711336      0.789904
  H      -0.600367     -0.716435      0.772180
  H       0.778026     -0.639127     -0.640040
  H      -0.641360      0.695367     -0.589000
           5
  -212.935180229113     
  C       0.082663      0.008239      0.090454
  H       0.754143      0.711374      0.789972
  H      -0.600254     -0.716401      0.772125
  H       0.778118     -0.639220     -0.640025
  H      -0.641296      0.695333     -0.588910
           5
  -212.935338798001     
  C       0.082612      0.008247      0.090437
  H       0.754291      0.711443      0.790092
  H      -0.600062     -0.716340      0.772030
  H       0.778273     -0.639379     -0.640009
  H      -0.641184      0.695268     -0.588754
           5
  -212.935545858336     
  C       0.082543      0.008258      0.090414
  H       0.754490      0.711531      0.790251
  H      -0.599799     -0.716262      0.771903
  H       0.778485     -0.639595     -0.639976
  H      -0.641036      0.695187     -0.588544
           5
  -212.935793949953     
  C       0.082456      0.008272      0.090385
  H       0.754742      0.711639      0.790451
  H      -0.599466     -0.716166      0.771744
  H       0.778753     -0.639868     -0.639933
  H      -0.640850      0.695086     -0.588278
           5
  -212.936070220895     
  C       0.082352      0.008289      0.090349
  H       0.755042      0.711764      0.790687
  H      -0.599066     -0.716055      0.771558
  H       0.779073     -0.640195     -0.639873
  H      -0.640630      0.694970     -0.587962
           5
  -212.936334113064     
  C       0.082232      0.008310      0.090307
  H       0.755385      0.711902      0.790955
  H      -0.598605     -0.715934      0.771347
  H       0.779442     -0.640571     -0.639795
  H      -0.640381      0.694844     -0.587600
           5
  -212.936630094046     
  C       0.082099      0.008334      0.090260
  H       0.755767      0.712046      0.791249
  H      -0.598088     -0.715807      0.771117
  H       0.779855     -0.640992     -0.639695
  H      -0.640108      0.694710     -0.587197
           5
  -212.936915244933     
  C       0.081955      0.008361      0.090207
  H       0.756183      0.712193      0.791565
  H      -0.597520     -0.715680      0.770873
  H       0.780306     -0.641453     -0.639569
  H      -0.639816      0.694576     -0.586760
           5
  -212.937158097658     
  C       0.081800      0.008391      0.090148
  H       0.756625      0.712337      0.791896
  H      -0.596908     -0.715556      0.770620
  H       0.780791     -0.641948     -0.639414
  H      -0.639513      0.694445     -0.586295
           5
  -212.937393033857     
  C       0.081637      0.008424      0.090084
  H       0.757088      0.712471      0.792236
  H      -0.596257     -0.715443      0.770364
  H       0.781303     -0.642471     -0.639226
  H      -0.639203      0.694324     -0.585809
           5
  -212.937590021674     
  C       0.081469      0.008461      0.090016
  H       0.757565      0.712591      0.792578
  H      -0.595576     -0.715344      0.770111
  H       0.781837     -0.643018     -0.639000
  H      -0.638893      0.694218     -0.585308
           5
  -212.937721779310     
  C       0.081298      0.008500      0.089943
  H       0.758050      0.712689      0.792917
  H      -0.594870     -0.715267      0.769867
  H       0.782387     -0.643581     -0.638732
  H      -0.638590      0.694133     -0.584800
           5
  -212.937841413304     
  C       0.081125      0.008543      0.089866
  H       0.758537      0.712761      0.793245
  H      -0.594148     -0.715216      0.769638
  H       0.782946     -0.644154     -0.638420
  H      -0.638300      0.694076     -0.584293
           5
  -212.937910640289     
  C       0.080953      0.008588      0.089785
  H       0.759020      0.712802      0.793557
  H      -0.593414     -0.715196      0.769429
  H       0.783509     -0.644732     -0.638060
  H      -0.638030      0.694051     -0.583792
           5
  -212.937959416756     
  C       0.080784      0.008637      0.089700
  H       0.759491      0.712805      0.793848
  H      -0.592678     -0.715214      0.769246
  H       0.784070     -0.645309     -0.637649
  H      -0.637786      0.694063     -0.583306
           5
  -212.937964099112     
  C       0.080787      0.008638      0.089699
  H       0.759482      0.712783      0.793833
  H      -0.592680     -0.715235      0.769263
  H       0.784066     -0.645304     -0.637622
  H      -0.637802      0.694085     -0.583317
           5
  -212.937977885093     
  C       0.080794      0.008643      0.089694
  H       0.759459      0.712722      0.793794
  H      -0.592683     -0.715296      0.769308
  H       0.784056     -0.645295     -0.637542
  H      -0.637848      0.694147     -0.583346
           5
  -212.937999640798     
  C       0.080806      0.008649      0.089686
  H       0.759417      0.712618      0.793725
  H      -0.592692     -0.715399      0.769386
  H       0.784036     -0.645277     -0.637409
  H      -0.637926      0.694253     -0.583398
           5
  -212.938027234433     
  C       0.080822      0.008659      0.089676
  H       0.759363      0.712477      0.793634
  H      -0.592699     -0.715539      0.769491
  H       0.784013     -0.645255     -0.637225
  H      -0.638031      0.694397     -0.583465
           5
  -212.938058050952     
  C       0.080842      0.008672      0.089662
  H       0.759295      0.712298      0.793519
  H      -0.592707     -0.715715      0.769624
  H       0.783984     -0.645229     -0.636992
  H      -0.638164      0.694578     -0.583550
           5
  -212.938089070930     
  C       0.080865      0.008687      0.089645
  H       0.759217      0.712085      0.793383
  H      -0.592713     -0.715926      0.769781
  H       0.783953     -0.645200     -0.636712
  H      -0.638321      0.694795     -0.583649
