           5
  -212.447809115452     
  C      -0.000000     -0.000000     -0.000000
  H       0.623316      0.623316      0.623316
  H      -0.623316     -0.623316      0.623316
  H       0.623316     -0.623316     -0.623316
  H      -0.623316      0.623316     -0.623316
           5
  -212.467111005270     
  C      -0.000000     -0.000000      0.000000
  H       0.624132      0.624132      0.624132
  H      -0.624132     -0.624132      0.624132
  H       0.624132     -0.624132     -0.624132
  H      -0.624132      0.624132     -0.624132
           5
  -212.521913884239     
  C      -0.000000     -0.000000      0.000000
  H       0.626546      0.626546      0.626546
  H      -0.626546     -0.626546      0.626546
  H       0.626546     -0.626546     -0.626546
  H      -0.626546      0.626546     -0.626546
           5
  -212.604277485093     
  C      -0.000000     -0.000000      0.000000
  H       0.630486      0.630486      0.630486
  H      -0.630486     -0.630486      0.630486
  H       0.630486     -0.630486     -0.630486
  H      -0.630486      0.630486     -0.630486
           5
  -212.702544558751     
  C      -0.000000     -0.000000      0.000000
  H       0.635838      0.635838      0.635838
  H      -0.635838     -0.635838      0.635838
  H       0.635838     -0.635838     -0.635838
  H      -0.635838      0.635838     -0.635838
           5
  -212.803107759858     
  C      -0.000000     -0.000000      0.000000
  H       0.642439      0.642439      0.642439
  H      -0.642439     -0.642439      0.642439
  H       0.642439     -0.642439     -0.642439
  H      -0.642439      0.642439     -0.642439
           5
  -212.892902755817     
  C      -0.000000     -0.000000      0.000000
  H       0.650113      0.650113      0.650113
  H      -0.650113     -0.650113      0.650113
  H       0.650113     -0.650113     -0.650113
  H      -0.650113      0.650113     -0.650113
           5
  -212.961150818847     
  C      -0.000000     -0.000000      0.000000
  H       0.658656      0.658656      0.658656
  H      -0.658656     -0.658656      0.658656
  H       0.658656     -0.658656     -0.658656
  H      -0.658656      0.658656     -0.658656
           5
  -213.000118546691     
  C      -0.000000     -0.000000      0.000000
  H       0.667867      0.667867      0.667866
  H      -0.667867     -0.667867      0.667866
  H       0.667867     -0.667867     -0.667866
  H      -0.667867      0.667867     -0.667866
           5
  -213.005552361588     
  C      -0.000000     -0.000000      0.000000
  H       0.677532      0.677532      0.677531
  H      -0.677532     -0.677532      0.677531
  H       0.677532     -0.677532     -0.677531
  H      -0.677532      0.677532     -0.677531
           5
  -212.976627759951     
  C      -0.000000     -0.000000      0.000000
  H       0.687453      0.687453      0.687452
  H      -0.687453     -0.687453      0.687452
  H       0.687453     -0.687453     -0.687452
  H      -0.687453      0.687453     -0.687452
           5
  -212.915357149202     
  C      -0.000000      0.000000      0.000000
  H       0.697441      0.697441      0.697440
  H      -0.697441     -0.697441      0.697440
  H       0.697441     -0.697441     -0.697440
  H      -0.697441      0.697441     -0.697440
           5
  -212.825900744341     
  C      -0.000000      0.000000      0.000000
  H       0.707321      0.707321      0.707320
  H      -0.707321     -0.707321      0.707320
  H       0.707321     -0.707321     -0.707320
  H      -0.707321      0.707321     -0.707320
           5
  -212.827450964988     
  C      -0.000000      0.000000      0.000000
  H       0.707163      0.707163      0.707162
  H      -0.707163     -0.707163      0.707162
  H       0.707163     -0.707163     -0.707162
  H      -0.707163      0.707163     -0.707162
           5
  -212.831376304126     
  C      -0.000000     -0.000000      0.000000
  H       0.706788      0.706788      0.706787
  H      -0.706788     -0.706788      0.706787
  H       0.706788     -0.706788     -0.706787
  H      -0.706788      0.706788     -0.706787
           5
  -212.838533709340     
  C      -0.000000     -0.000000      0.000000
  H       0.706085      0.706085      0.706084
  H      -0.706085     -0.706085      0.706084
  H       0.706085     -0.706085     -0.706084
  H      -0.706085      0.706085     -0.706084
           5
  -212.847533549216     
  C      -0.000000     -0.000000      0.000000
  H       0.705182      0.705182      0.705180
  H      -0.705182     -0.705182      0.705180
  H       0.705182     -0.705182     -0.705180
  H      -0.705182      0.705182     -0.705180
           5
  -212.858663110589     
  C      -0.000000     -0.000000      0.000000
  H       0.704032      0.704032      0.704030
  H      -0.704032     -0.704032      0.704030
  H       0.704032     -0.704032     -0.704030
  H      -0.704032      0.704032     -0.704030
           5
  -212.871398334677     
  C      -0.000000     -0.000000      0.000000
  H       0.702668      0.702668      0.702666
  H      -0.702668     -0.702668      0.702666
  H       0.702668     -0.702668     -0.702666
  H      -0.702668      0.702668     -0.702666
           5
  -212.885311493310     
  C      -0.000000     -0.000000      0.000000
  H       0.701109      0.701109      0.701107
  H      -0.701109     -0.701109      0.701107
  H       0.701109     -0.701109     -0.701107
  H      -0.701109      0.701109     -0.701107
           5
  -212.899929155812     
  C      -0.000000     -0.000000      0.000000
  H       0.699382      0.699382      0.699380
  H      -0.699382     -0.699382      0.699380
  H       0.699382     -0.699382     -0.699380
  H      -0.699382      0.699382     -0.699380
           5
  -212.914770562315     
  C      -0.000000     -0.000000      0.000000
  H       0.697513      0.697513      0.697511
  H      -0.697513     -0.697513      0.697511
  H       0.697513     -0.697513     -0.697511
  H      -0.697513      0.697513     -0.697511
           5
  -212.929370557355     
  C      -0.000000     -0.000000      0.000000
  H       0.695534      0.695534      0.695532
  H      -0.695534     -0.695534      0.695532
  H       0.695534     -0.695534     -0.695532
  H      -0.695534      0.695534     -0.695532
           5
  -212.943297691015     
  C      -0.000000     -0.000000      0.000000
  H       0.693478      0.693478      0.693476
  H      -0.693478     -0.693478      0.693476
  H       0.693478     -0.693478     -0.693476
  H      -0.693478      0.693478     -0.693476
           5
  -212.956179563581     
  C      -0.000000     -0.000000      0.000000
  H       0.691381      0.691381      0.691378
  H      -0.691381     -0.691381      0.691378
  H       0.691381     -0.691381     -0.691378
  H      -0.691381      0.691381     -0.691378
           5
  -212.967717773590     
  C      -0.000000     -0.000000      0.000000
  H       0.689278      0.689278      0.689275
  H      -0.689278     -0.689278      0.689275
  H       0.689278     -0.689278     -0.689275
  H      -0.689278      0.689278     -0.689275
           5
  -212.977706088100     
  C      -0.000000     -0.000000      0.000000
  H       0.687207      0.687207      0.687204
  H      -0.687207     -0.687207      0.687204
  H       0.687207     -0.687207     -0.687204
  H      -0.687207      0.687207     -0.687204
           5
  -212.977497477333     
  C      -0.000000     -0.000000      0.000000
  H       0.687248      0.687248      0.687245
  H      -0.687248     -0.687248      0.687245
  H       0.687248     -0.687248     -0.687245
  H      -0.687248      0.687248     -0.687245
           5
  -212.977122034885     
  C      -0.000000     -0.000000      0.000000
  H       0.687346      0.687346      0.687343
  H      -0.687346     -0.687346      0.687343
  H       0.687346     -0.687346     -0.687343
  H      -0.687346      0.687346     -0.687343
           5
  -212.976308973579     
  C      -0.000000     -0.000000      0.000000
  H       0.687529      0.687529      0.687526
  H      -0.687529     -0.687529      0.687526
  H       0.687529     -0.687529     -0.687526
  H      -0.687529      0.687529     -0.687526
           5
  -212.975238863613     
  C      -0.000000     -0.000000      0.000000
  H       0.687764      0.687764      0.687760
  H      -0.687764     -0.687764      0.687760
  H       0.687764     -0.687764     -0.687760
  H      -0.687764      0.687764     -0.687760
           5
  -212.973857896833     
  C      -0.000000     -0.000000      0.000000
  H       0.688061      0.688061      0.688058
  H      -0.688061     -0.688061      0.688058
  H       0.688061     -0.688061     -0.688058
  H      -0.688061      0.688061     -0.688058
           5
  -212.972057953088     
  C      -0.000000     -0.000000      0.000000
  H       0.688413      0.688413      0.688409
  H      -0.688413     -0.688413      0.688409
  H       0.688413     -0.688413     -0.688409
  H      -0.688413      0.688413     -0.688409
           5
  -212.970085006611     
  C      -0.000000     -0.000000      0.000000
  H       0.688812      0.688812      0.688808
  H      -0.688812     -0.688812      0.688808
  H       0.688812     -0.688812     -0.688808
  H      -0.688812      0.688812     -0.688808
           5
  -212.967853066007     
  C      -0.000000     -0.000000      0.000000
  H       0.689251      0.689251      0.689248
  H      -0.689251     -0.689251      0.689248
  H       0.689251     -0.689251     -0.689248
  H      -0.689251      0.689251     -0.689248
           5
  -212.965386968619     
  C      -0.000000     -0.000000      0.000000
  H       0.689724      0.689724      0.689720
  H      -0.689724     -0.689724      0.689720
  H       0.689724     -0.689724     -0.689720
  H      -0.689724      0.689724     -0.689720
           5
  -212.962718619676     
  C      -0.000000     -0.000000      0.000000
  H       0.690220      0.690220      0.690216
  H      -0.690220     -0.690220      0.690216
  H       0.690220     -0.690220     -0.690216
  H      -0.690220      0.690220     -0.690216
           5
  -212.959886708395     
  C      -0.000000     -0.000000      0.000000
  H       0.690732      0.690732      0.690728
  H      -0.690732     -0.690732      0.690728
  H       0.690732     -0.690732     -0.690728
  H      -0.690732      0.690732     -0.690728
           5
  -212.956936747673     
  C      -0.000000     -0.000000      0.000000
  H       0.691250      0.691250      0.691246
  H      -0.691250     -0.691250      0.691246
  H       0.691250     -0.691250     -0.691246
  H      -0.691250      0.691250     -0.691246
           5
  -212.953920474872     
  C      -0.000000     -0.000000      0.000000
  H       0.691765      0.691765      0.691761
  H      -0.691765     -0.691765      0.691761
  H       0.691765     -0.691765     -0.691761
  H      -0.691765      0.691765     -0.691761
           5
  -212.950894905572     
  C      -0.000000     -0.000000      0.000000
  H       0.692268      0.692268      0.692264
  H      -0.692268     -0.692268      0.692264
  H       0.692268     -0.692268     -0.692264
  H      -0.692268      0.692268     -0.692264
           5
  -212.950973989765     
  C      -0.000000     -0.000000      0.000000
  H       0.692256      0.692256      0.692252
  H      -0.692256     -0.692256      0.692252
  H       0.692256     -0.692256     -0.692252
  H      -0.692256      0.692256     -0.692252
           5
  -212.951171206531     
  C      -0.000000     -0.000000      0.000000
  H       0.692227      0.692227      0.692222
  H      -0.692227     -0.692227      0.692222
  H       0.692227     -0.692227     -0.692223
  H      -0.692227      0.692227     -0.692223
           5
  -212.951442345323     
  C      -0.000000     -0.000000      0.000000
  H       0.692173      0.692173      0.692169
  H      -0.692173     -0.692173      0.692169
  H       0.692173     -0.692173     -0.692169
  H      -0.692173      0.692173     -0.692169
           5
  -212.951873101784     
  C      -0.000000      0.000000      0.000000
  H       0.692103      0.692103      0.692098
  H      -0.692103     -0.692103      0.692098
  H       0.692103     -0.692103     -0.692098
  H      -0.692103      0.692103     -0.692098
           5
  -212.952402158484     
  C      -0.000000      0.000000      0.000000
  H       0.692014      0.692014      0.692010
  H      -0.692014     -0.692014      0.692010
  H       0.692014     -0.692014     -0.692010
  H      -0.692014      0.692014     -0.692010
           5
  -212.953026213236     
  C      -0.000000      0.000000      0.000000
  H       0.691909      0.691909      0.691904
  H      -0.691909     -0.691909      0.691904
  H       0.691909     -0.691909     -0.691904
  H      -0.691909      0.691909     -0.691904
           5
  -212.953734363127     
  C      -0.000000      0.000000      0.000000
  H       0.691789      0.691789      0.691785
  H      -0.691789     -0.691789      0.691785
  H       0.691789     -0.691789     -0.691785
  H      -0.691789      0.691789     -0.691785
           5
  -212.954511985558     
  C      -0.000000      0.000000      0.000000
  H       0.691657      0.691657      0.691653
  H      -0.691657     -0.691657      0.691653
  H       0.691657     -0.691657     -0.691653
  H      -0.691657      0.691657     -0.691653
           5
  -212.955344084171     
  C      -0.000000      0.000000      0.000000
  H       0.691515      0.691515      0.691511
  H      -0.691515     -0.691515      0.691511
  H       0.691515     -0.691515     -0.691511
  H      -0.691515      0.691515     -0.691511
           5
  -212.956214861002     
  C      -0.000000      0.000000      0.000000
  H       0.691366      0.691366      0.691361
  H      -0.691366     -0.691366      0.691361
  H       0.691366     -0.691366     -0.691361
  H      -0.691366      0.691366     -0.691361
           5
  -212.957108106159     
  C      -0.000000      0.000000      0.000000
  H       0.691211      0.691211      0.691206
  H      -0.691211     -0.691211      0.691206
  H       0.691211     -0.691211     -0.691206
  H      -0.691211      0.691211     -0.691206
           5
  -212.958007545760     
  C      -0.000000      0.000000      0.000000
  H       0.691054      0.691054      0.691049
  H      -0.691054     -0.691054      0.691049
  H       0.691054     -0.691054     -0.691049
  H      -0.691054      0.691054     -0.691049
           5
  -212.958897170213     
  C      -0.000000      0.000000      0.000000
  H       0.690898      0.690898      0.690893
  H      -0.690898     -0.690898      0.690893
  H       0.690898     -0.690898     -0.690893
  H      -0.690898      0.690898     -0.690893
           5
  -212.959761526003     
  C      -0.000000      0.000000      0.000000
  H       0.690745      0.690745      0.690740
  H      -0.690745     -0.690745      0.690740
  H       0.690745     -0.690745     -0.690740
  H      -0.690745      0.690745     -0.690740
           5
  -212.959743931390     
  C      -0.000000      0.000000      0.000000
  H       0.690748      0.690748      0.690743
  H      -0.690748     -0.690748      0.690743
  H       0.690748     -0.690748     -0.690743
  H      -0.690748      0.690748     -0.690743
           5
  -212.959694583560     
  C      -0.000000      0.000000      0.000000
  H       0.690757      0.690757      0.690752
  H      -0.690757     -0.690757      0.690752
  H       0.690757     -0.690757     -0.690752
  H      -0.690757      0.690757     -0.690752
           5
  -212.959601510378     
  C      -0.000000      0.000000      0.000000
  H       0.690773      0.690773      0.690767
  H      -0.690773     -0.690773      0.690767
  H       0.690773     -0.690773     -0.690767
  H      -0.690773      0.690773     -0.690767
           5
  -212.959479667895     
  C      -0.000000      0.000000      0.000000
  H       0.690793      0.690793      0.690788
  H      -0.690793     -0.690793      0.690788
  H       0.690793     -0.690793     -0.690788
  H      -0.690793      0.690793     -0.690788
           5
  -212.959413628063     
  C      -0.000000      0.000000      0.000000
  H       0.690819      0.690819      0.690813
  H      -0.690819     -0.690819      0.690813
  H       0.690819     -0.690819     -0.690814
  H      -0.690819      0.690819     -0.690814
           5
  -212.959223303653     
  C      -0.000000      0.000000      0.000000
  H       0.690849      0.690849      0.690844
  H      -0.690849     -0.690849      0.690844
  H       0.690849     -0.690849     -0.690844
  H      -0.690849      0.690849     -0.690844
           5
  -212.959057756138     
  C      -0.000000      0.000000      0.000000
  H       0.690884      0.690884      0.690878
  H      -0.690884     -0.690884      0.690878
  H       0.690884     -0.690884     -0.690878
  H      -0.690884      0.690884     -0.690878
           5
  -212.958817689401     
  C      -0.000000     -0.000000      0.000000
  H       0.690922      0.690922      0.690917
  H      -0.690922     -0.690922      0.690917
  H       0.690922     -0.690922     -0.690917
  H      -0.690922      0.690922     -0.690917
           5
  -212.958613212848     
  C      -0.000000     -0.000000      0.000000
  H       0.690963      0.690963      0.690958
  H      -0.690963     -0.690963      0.690958
  H       0.690963     -0.690963     -0.690958
  H      -0.690963      0.690963     -0.690958
           5
  -212.958340250254     
  C      -0.000000     -0.000000      0.000000
  H       0.691006      0.691006      0.691001
  H      -0.691006     -0.691006      0.691001
  H       0.691006     -0.691006     -0.691001
  H      -0.691006      0.691006     -0.691001
           5
  -212.958116104762     
  C      -0.000000     -0.000000      0.000000
  H       0.691051      0.691051      0.691045
  H      -0.691051     -0.691051      0.691045
  H       0.691051     -0.691051     -0.691045
  H      -0.691051      0.691051     -0.691045
           5
  -212.957829198799     
  C      -0.000000     -0.000000      0.000000
  H       0.691096      0.691096      0.691090
  H      -0.691096     -0.691096      0.691090
  H       0.691096     -0.691096     -0.691090
  H      -0.691096      0.691096     -0.691090
           5
  -212.957600777535     
  C      -0.000000     -0.000000      0.000000
  H       0.691141      0.691141      0.691135
  H      -0.691141     -0.691141      0.691135
  H       0.691141     -0.691141     -0.691135
  H      -0.691141      0.691141     -0.691135
           5
  -212.957320070944     
  C      -0.000000     -0.000000      0.000000
  H       0.691185      0.691185      0.691179
  H      -0.691185     -0.691185      0.691179
  H       0.691185     -0.691185     -0.691179
  H      -0.691185      0.691185     -0.691179
           5
  -212.957326493872     
  C      -0.000000     -0.000000      0.000000
  H       0.691184      0.691184      0.691178
  H      -0.691184     -0.691184      0.691178
  H       0.691184     -0.691184     -0.691178
  H      -0.691184      0.691184     -0.691178
           5
  -212.957342490563     
  C      -0.000000     -0.000000      0.000000
  H       0.691181      0.691181      0.691176
  H      -0.691181     -0.691181      0.691176
  H       0.691181     -0.691181     -0.691176
  H      -0.691181      0.691181     -0.691176
           5
  -212.957371236457     
  C      -0.000000     -0.000000      0.000000
  H       0.691177      0.691177      0.691171
  H      -0.691177     -0.691177      0.691171
  H       0.691177     -0.691177     -0.691171
  H      -0.691177      0.691177     -0.691171
           5
  -212.957408514633     
  C      -0.000000     -0.000000      0.000000
  H       0.691171      0.691171      0.691165
  H      -0.691171     -0.691171      0.691165
  H       0.691171     -0.691171     -0.691165
  H      -0.691171      0.691171     -0.691165
           5
  -212.957455460209     
  C      -0.000000     -0.000000      0.000000
  H       0.691163      0.691163      0.691158
  H      -0.691163     -0.691163      0.691158
  H       0.691163     -0.691163     -0.691158
  H      -0.691163      0.691163     -0.691158
           5
  -212.957510765023     
  C      -0.000000     -0.000000      0.000000
  H       0.691155      0.691155      0.691149
  H      -0.691155     -0.691155      0.691149
  H       0.691154     -0.691154     -0.691149
  H      -0.691154      0.691154     -0.691149
           5
  -212.957573440181     
  C      -0.000000     -0.000000      0.000000
  H       0.691144      0.691144      0.691139
  H      -0.691144     -0.691144      0.691139
  H       0.691144     -0.691144     -0.691139
  H      -0.691144      0.691144     -0.691139
           5
  -212.957642313039     
  C      -0.000000     -0.000000      0.000000
  H       0.691133      0.691133      0.691128
  H      -0.691133     -0.691133      0.691128
  H       0.691133     -0.691133     -0.691128
  H      -0.691133      0.691133     -0.691128
           5
  -212.957716130575     
  C      -0.000000     -0.000000      0.000000
  H       0.691121      0.691121      0.691116
  H      -0.691121     -0.691121      0.691116
  H       0.691121     -0.691121     -0.691116
  H      -0.691121      0.691121     -0.691116
           5
  -212.957793552107     
  C      -0.000000      0.000000      0.000000
  H       0.691109      0.691109      0.691103
  H      -0.691109     -0.691109      0.691103
  H       0.691109     -0.691109     -0.691103
  H      -0.691109      0.691109     -0.691103
           5
  -212.957873179918     
  C      -0.000000      0.000000      0.000000
  H       0.691095      0.691095      0.691090
  H      -0.691095     -0.691095      0.691090
  H       0.691095     -0.691095     -0.691090
  H      -0.691095      0.691095     -0.691090
           5
  -212.957953582265     
  C      -0.000000      0.000000      0.000000
  H       0.691082      0.691082      0.691076
  H      -0.691082     -0.691082      0.691076
  H       0.691082     -0.691082     -0.691076
  H      -0.691082      0.691082     -0.691076
           5
  -212.957961687820     
  C      -0.000000      0.000000      0.000000
  H       0.691069      0.691069      0.691063
  H      -0.691069     -0.691069      0.691063
  H       0.691069     -0.691069     -0.691063
  H      -0.691069      0.691069     -0.691063
           5
  -212.958045134206     
  C      -0.000000      0.000000      0.000000
  H       0.691056      0.691056      0.691050
  H      -0.691056     -0.691056      0.691050
  H       0.691056     -0.691056     -0.691050
  H      -0.691056      0.691056     -0.691050
           5
  -212.958044126695     
  C      -0.000000      0.000000      0.000000
  H       0.691056      0.691056      0.691050
  H      -0.691056     -0.691056      0.691050
  H       0.691056     -0.691056     -0.691050
  H      -0.691056      0.691056     -0.691050
           5
  -212.958040193374     
  C      -0.000000      0.000000      0.000000
  H       0.691057      0.691057      0.691051
  H      -0.691057     -0.691057      0.691051
  H       0.691057     -0.691057     -0.691051
  H      -0.691057      0.691057     -0.691051
           5
  -212.958032558933     
  C      -0.000000      0.000000      0.000000
  H       0.691058      0.691058      0.691052
  H      -0.691058     -0.691058      0.691052
  H       0.691058     -0.691058     -0.691052
  H      -0.691058      0.691058     -0.691052
           5
  -212.958022394258     
  C      -0.000000      0.000000      0.000000
  H       0.691060      0.691060      0.691054
  H      -0.691060     -0.691060      0.691054
  H       0.691060     -0.691060     -0.691054
  H      -0.691060      0.691060     -0.691054
           5
  -212.958009374633     
  C      -0.000000      0.000000      0.000000
  H       0.691062      0.691062      0.691056
  H      -0.691062     -0.691062      0.691056
  H       0.691062     -0.691062     -0.691056
  H      -0.691062      0.691062     -0.691056
           5
  -212.957993877999     
  C      -0.000000      0.000000      0.000000
  H       0.691064      0.691064      0.691059
  H      -0.691064     -0.691064      0.691059
  H       0.691064     -0.691064     -0.691059
  H      -0.691064      0.691064     -0.691059
           5
  -212.957976189796     
  C      -0.000000      0.000000      0.000000
  H       0.691067      0.691067      0.691062
  H      -0.691067     -0.691067      0.691062
  H       0.691067     -0.691067     -0.691062
  H      -0.691067      0.691067     -0.691062
           5
  -212.957956648302     
  C      -0.000000      0.000000      0.000000
  H       0.691071      0.691071      0.691065
  H      -0.691071     -0.691071      0.691065
  H       0.691071     -0.691071     -0.691065
  H      -0.691071      0.691071     -0.691065
           5
  -212.957935615682     
  C      -0.000000      0.000000      0.000000
  H       0.691074      0.691074      0.691068
  H      -0.691074     -0.691074      0.691068
  H       0.691074     -0.691074     -0.691068
  H      -0.691074      0.691074     -0.691068
           5
  -212.957913480326     
  C      -0.000000      0.000000      0.000000
  H       0.691078      0.691078      0.691072
  H      -0.691078     -0.691078      0.691072
  H       0.691078     -0.691078     -0.691072
  H      -0.691078      0.691078     -0.691072
           5
  -212.957890648255     
  C      -0.000000      0.000000      0.000000
  H       0.691082      0.691082      0.691076
  H      -0.691082     -0.691082      0.691076
  H       0.691082     -0.691082     -0.691076
  H      -0.691082      0.691082     -0.691076
           5
  -212.957867536642     
  C      -0.000000      0.000000      0.000000
  H       0.691086      0.691086      0.691080
  H      -0.691086     -0.691086      0.691080
  H       0.691086     -0.691086     -0.691080
  H      -0.691086      0.691086     -0.691080
           5
  -212.957844566615     
  C      -0.000000      0.000000      0.000000
  H       0.691089      0.691089      0.691084
  H      -0.691089     -0.691089      0.691084
  H       0.691089     -0.691089     -0.691084
  H      -0.691089      0.691089     -0.691084
           5
  -212.957822156082     
  C      -0.000000      0.000000      0.000000
  H       0.691093      0.691093      0.691087
  H      -0.691093     -0.691093      0.691087
  H       0.691093     -0.691093     -0.691087
  H      -0.691093      0.691093     -0.691087
           5
  -212.957824370523     
  C      -0.000000      0.000000      0.000000
  H       0.691093      0.691093      0.691087
  H      -0.691093     -0.691093      0.691087
  H       0.691093     -0.691093     -0.691087
  H      -0.691093      0.691093     -0.691087
           5
  -212.957827189322     
  C      -0.000000      0.000000      0.000000
  H       0.691093      0.691093      0.691087
  H      -0.691093     -0.691093      0.691087
  H       0.691093     -0.691093     -0.691087
  H      -0.691093      0.691093     -0.691087
           5
  -212.957830925147     
  C      -0.000000      0.000000      0.000000
  H       0.691093      0.691093      0.691087
  H      -0.691093     -0.691093      0.691087
  H       0.691093     -0.691093     -0.691087
  H      -0.691093      0.691093     -0.691087
